[General]
network = TicHubToc
cpu-time-limit = 60s
#debug-on-errors = true

sim-time-limit = 5s

**.toc.sendInitialMessage = true
#**.tic.sendInitialMessage = true
#**.toc.procTime = uniform(0s,5s)
#**.toc.procTimeSet = true
