[General]
network = Bar1
cpu-time-limit = 60s
sim-time-limit = 1500s

repeat = 5
seed-set = ${repetition}
