[General]
network = ProducerConsumer

sim-time-limit = 60s

**.C.id = 0
**.C.period = 2s

